Version 4
SHEET 1 1880 692
WIRE 240 -48 -128 -48
WIRE 688 -48 240 -48
WIRE 1008 -48 688 -48
WIRE 240 0 240 -48
WIRE -128 96 -128 -48
WIRE 240 112 240 80
WIRE 240 144 240 112
WIRE 256 144 240 112
WIRE 688 144 688 -48
WIRE 336 160 256 144
WIRE 432 160 336 160
WIRE 640 160 512 160
WIRE 16 208 -432 208
WIRE 80 208 16 208
WIRE 176 208 160 208
WIRE 192 224 176 208
WIRE 176 240 176 208
WIRE -128 256 -128 176
WIRE 688 320 688 240
WIRE -432 336 -432 208
WIRE 176 480 176 320
WIRE 240 480 240 240
WIRE 688 544 688 320
WIRE 688 672 688 624
FLAG 240 480 0
FLAG -128 256 0
FLAG 336 160 p_gate
FLAG 688 672 0
FLAG 176 480 0
FLAG 16 208 vin
FLAG 688 320 vout
FLAG -432 416 0
SYMBOL nmos 192 144 R0
SYMATTR InstName M1
SYMATTR Value irlml2402
SYMATTR Prefix X
SYMBOL res 224 -16 R0
SYMATTR InstName R1
SYMATTR Value 10k
SYMBOL voltage -128 80 R0
WINDOW 123 0 0 Left 2
WINDOW 39 24 124 Left 2
SYMATTR SpiceLine Rser=0
SYMATTR InstName V1
SYMATTR Value 12
SYMBOL res 176 192 R90
WINDOW 0 0 56 VBottom 2
WINDOW 3 32 56 VTop 2
SYMATTR InstName R2
SYMATTR Value 22
SYMBOL voltage -432 320 R0
WINDOW 123 0 0 Left 2
WINDOW 39 0 0 Left 2
SYMATTR InstName V2
SYMATTR Value PULSE(0 5 0 0 0 0.075 0.1)
SYMBOL res 672 528 R0
SYMATTR InstName R4
SYMATTR Value 1.982
SYMBOL pmos 640 240 M180
SYMATTR InstName M2
SYMATTR Value irfru5305
SYMATTR Prefix X
SYMBOL res 160 224 R0
SYMATTR InstName R5
SYMATTR Value 470k
SYMBOL res 528 144 R90
WINDOW 0 0 56 VBottom 2
WINDOW 3 32 56 VTop 2
SYMATTR InstName R3
SYMATTR Value 22
TEXT -168 552 Left 2 !.inc irlml2402.sub
TEXT -168 584 Left 2 !.inc C:\\Programme\\LTC\\LTspiceIV\\lib\\sub\\irfr9024n.sub
TEXT -160 392 Left 2 !;op
TEXT -168 616 Left 2 !.inc C:\\Programme\\LTC\\LTspiceIV\\lib\\sub\\lm358.sub
TEXT -160 344 Left 2 !.tran 0.1
TEXT -168 648 Left 2 !.inc irfr5305.sub
